
     RDKit          3D

146149  0  0  0  0  0  0  0  0999 V2000
    4.4271    5.0549   -4.1515 C   0  0  0  0  0  0  0  0  0  0  0  0
    5.0246    3.8902   -3.3511 C   0  0  0  0  0  0  0  0  0  0  0  0
    3.9920    3.3880   -2.3148 C   0  0  0  0  0  0  0  0  0  0  0  0
    4.5210    2.2957   -1.3618 C   0  0  0  0  0  0  0  0  0  0  0  0
    5.5527    2.8432   -0.4121 C   0  0  0  0  0  0  0  0  0  0  0  0
    5.1910    3.5817    0.5461 O   0  0  0  0  0  0  0  0  0  0  0  0
    6.9427    2.5437   -0.6050 N   0  0  0  0  0  0  0  0  0  0  0  0
    7.9394    2.7574    0.4417 C   0  0  0  0  0  0  0  0  0  0  0  0
    7.8811    1.6355    1.4374 C   0  0  0  0  0  0  0  0  0  0  0  0
    7.1512    1.7482    2.5591 C   0  0  0  0  0  0  0  0  0  0  0  0
    6.9468    0.5652    3.4635 C   0  0  0  0  0  0  0  0  0  0  0  0
    8.1865   -0.3410    3.4693 C   0  0  0  0  0  0  0  0  0  0  0  0
    8.6764   -0.6092    2.0622 C   0  0  0  0  0  0  0  0  0  0  0  0
    8.5604    0.3558    1.1316 C   0  0  0  0  0  0  0  0  0  0  0  0
    9.2504   -1.9670    1.6914 C   0  0  0  0  0  0  0  0  0  0  0  0
   10.7233   -2.1069    1.9134 N   0  0  0  0  0  0  0  0  0  0  0  0
   11.4838   -1.0815    1.1600 C   0  0  0  0  0  0  0  0  0  0  0  0
   11.1377   -3.4450    1.4198 C   0  0  0  0  0  0  0  0  0  0  0  0
   11.0553   -2.0160    3.3558 C   0  0  0  0  0  0  0  0  0  0  0  0
    3.3990    1.7436   -0.5964 N   0  0  0  0  0  0  0  0  0  0  0  0
    3.2044    0.3350   -0.4122 C   0  0  0  0  0  0  0  0  0  0  0  0
    4.1249   -0.4832   -0.6982 O   0  0  0  0  0  0  0  0  0  0  0  0
    1.8611   -0.1842    0.0028 C   0  0  0  0  0  0  0  0  0  0  0  0
    0.9957   -0.4626   -1.2472 C   0  0  0  0  0  0  0  0  0  0  0  0
   -0.5207   -0.7194   -0.9485 C   0  0  0  0  0  0  0  0  0  0  0  0
   -1.2548    0.5428   -0.6960 N   0  0  0  0  0  0  0  0  0  0  0  0
   -1.7981    1.2541   -1.8736 C   0  0  0  0  0  0  0  0  0  0  0  0
   -2.9026    0.4600   -2.6223 C   0  0  0  0  0  0  0  0  0  0  0  0
   -3.7620   -0.3432   -1.7167 N   0  0  0  0  0  0  0  0  0  0  0  0
   -4.5582    0.2856   -0.6779 C   0  0  0  0  0  0  0  0  0  0  0  0
   -4.2835    1.4576   -0.3039 O   0  0  0  0  0  0  0  0  0  0  0  0
   -5.7151   -0.4257   -0.0017 C   0  0  0  0  0  0  0  0  0  0  0  0
   -5.3460   -0.8370    1.4414 C   0  0  0  0  0  0  0  0  0  0  0  0
   -6.5139   -1.4345    2.1876 C   0  0  0  0  0  0  0  0  0  0  0  0
   -7.0639   -2.5947    1.7817 C   0  0  0  0  0  0  0  0  0  0  0  0
   -8.2041   -3.1855    2.5107 C   0  0  0  0  0  0  0  0  0  0  0  0
   -8.5707   -2.7062    3.7009 C   0  0  0  0  0  0  0  0  0  0  0  0
   -7.7290   -1.6630    4.3881 C   0  0  0  0  0  0  0  0  0  0  0  0
   -7.1110   -0.6942    3.3671 C   0  0  0  0  0  0  0  0  0  0  0  0
   -6.9350    0.3921   -0.0741 N   0  0  0  0  0  0  0  0  0  0  0  0
   -7.2040    1.5834    0.6801 C   0  0  0  0  0  0  0  0  0  0  0  0
   -6.3588    2.0272    1.5044 O   0  0  0  0  0  0  0  0  0  0  0  0
   -8.4374    2.2281    0.4929 O   0  0  0  0  0  0  0  0  0  0  0  0
   -8.9584    3.3105    1.2775 C   0  0  0  0  0  0  0  0  0  0  0  0
   -9.0611    2.9045    2.7613 C   0  0  0  0  0  0  0  0  0  0  0  0
   -8.0897    4.5713    1.1163 C   0  0  0  0  0  0  0  0  0  0  0  0
  -10.3675    3.6097    0.7491 C   0  0  0  0  0  0  0  0  0  0  0  0
   -3.9193   -1.7764   -2.0010 C   0  0  0  0  0  0  0  0  0  0  0  0
   -3.7634    1.4029   -3.4891 C   0  0  0  0  0  0  0  0  0  0  0  0
   -4.7694    0.6337   -4.2916 C   0  0  0  0  0  0  0  0  0  0  0  0
   -6.0973    0.4435   -3.9691 C   0  0  0  0  0  0  0  0  0  0  0  0
   -6.6310   -0.3869   -4.8825 N   0  0  0  0  0  0  0  0  0  0  0  0
   -5.6304   -0.6905   -5.7332 C   0  0  0  0  0  0  0  0  0  0  0  0
   -4.4782   -0.0845   -5.3913 N   0  0  0  0  0  0  0  0  0  0  0  0
   -0.7775    1.6000   -2.7751 O   0  0  0  0  0  0  0  0  0  0  0  0
   -0.7818   -1.6468    0.2695 C   0  0  0  0  0  0  0  0  0  0  0  0
   -0.1766   -3.0783    0.1927 C   0  0  0  0  0  0  0  0  0  0  0  0
   -0.1386   -3.7236    1.5939 C   0  0  0  0  0  0  0  0  0  0  0  0
   -1.5443   -4.0616    2.1259 C   0  0  0  0  0  0  0  0  0  0  0  0
   -2.5047   -4.5879    1.0397 C   0  0  0  0  0  0  0  0  0  0  0  0
   -1.7600   -5.1008   -0.1968 C   0  0  0  0  0  0  0  0  0  0  0  0
   -0.9050   -3.9912   -0.8378 C   0  0  0  0  0  0  0  0  0  0  0  0
    1.5442   -1.5469   -1.9536 O   0  0  0  0  0  0  0  0  0  0  0  0
    5.4744    2.7735   -4.3102 C   0  0  0  0  0  0  0  0  0  0  0  0
    4.1187    5.8738   -3.4677 H   0  0  0  0  0  0  0  0  0  0  0  0
    3.5412    4.7183   -4.7299 H   0  0  0  0  0  0  0  0  0  0  0  0
    5.1798    5.4673   -4.8561 H   0  0  0  0  0  0  0  0  0  0  0  0
    5.9200    4.2776   -2.8150 H   0  0  0  0  0  0  0  0  0  0  0  0
    3.6364    4.2494   -1.7050 H   0  0  0  0  0  0  0  0  0  0  0  0
    3.1054    2.9923   -2.8569 H   0  0  0  0  0  0  0  0  0  0  0  0
    4.9754    1.4852   -1.9685 H   0  0  0  0  0  0  0  0  0  0  0  0
    7.2413    2.0481   -1.4769 H   0  0  0  0  0  0  0  0  0  0  0  0
    7.7832    3.7473    0.9244 H   0  0  0  0  0  0  0  0  0  0  0  0
    8.9512    2.7803   -0.0198 H   0  0  0  0  0  0  0  0  0  0  0  0
    6.6359    2.6717    2.7893 H   0  0  0  0  0  0  0  0  0  0  0  0
    6.7408    0.9206    4.4972 H   0  0  0  0  0  0  0  0  0  0  0  0
    6.0652   -0.0114    3.1102 H   0  0  0  0  0  0  0  0  0  0  0  0
    8.9916    0.1804    4.0328 H   0  0  0  0  0  0  0  0  0  0  0  0
    7.9514   -1.2890    3.9984 H   0  0  0  0  0  0  0  0  0  0  0  0
    8.9346    0.1947    0.1297 H   0  0  0  0  0  0  0  0  0  0  0  0
    8.6990   -2.7462    2.2688 H   0  0  0  0  0  0  0  0  0  0  0  0
    9.0033   -2.1823    0.6255 H   0  0  0  0  0  0  0  0  0  0  0  0
   11.2914   -0.0613    1.5581 H   0  0  0  0  0  0  0  0  0  0  0  0
   12.5789   -1.2604    1.2353 H   0  0  0  0  0  0  0  0  0  0  0  0
   11.2049   -1.0934    0.0830 H   0  0  0  0  0  0  0  0  0  0  0  0
   12.2215   -3.6243    1.5965 H   0  0  0  0  0  0  0  0  0  0  0  0
   10.5710   -4.2576    1.9343 H   0  0  0  0  0  0  0  0  0  0  0  0
   10.9575   -3.5416    0.3249 H   0  0  0  0  0  0  0  0  0  0  0  0
   10.4029   -2.6865    3.9588 H   0  0  0  0  0  0  0  0  0  0  0  0
   12.1150   -2.3089    3.5476 H   0  0  0  0  0  0  0  0  0  0  0  0
   10.9408   -0.9783    3.7328 H   0  0  0  0  0  0  0  0  0  0  0  0
    2.7017    2.4033   -0.1808 H   0  0  0  0  0  0  0  0  0  0  0  0
    2.0004   -1.1062    0.5999 H   0  0  0  0  0  0  0  0  0  0  0  0
    1.3760    0.5666    0.6578 H   0  0  0  0  0  0  0  0  0  0  0  0
    1.0866    0.4362   -1.8901 H   0  0  0  0  0  0  0  0  0  0  0  0
   -0.9521   -1.2171   -1.8379 H   0  0  0  0  0  0  0  0  0  0  0  0
   -0.6707    1.2072   -0.1355 H   0  0  0  0  0  0  0  0  0  0  0  0
   -2.2598    2.1990   -1.5010 H   0  0  0  0  0  0  0  0  0  0  0  0
   -2.3748   -0.2123   -3.3370 H   0  0  0  0  0  0  0  0  0  0  0  0
   -5.9400   -1.3623   -0.5451 H   0  0  0  0  0  0  0  0  0  0  0  0
   -4.9432    0.0362    1.9956 H   0  0  0  0  0  0  0  0  0  0  0  0
   -4.5240   -1.5849    1.4080 H   0  0  0  0  0  0  0  0  0  0  0  0
   -6.6799   -3.1148    0.9145 H   0  0  0  0  0  0  0  0  0  0  0  0
   -8.7594   -3.9998    2.0618 H   0  0  0  0  0  0  0  0  0  0  0  0
   -9.4210   -3.1339    4.2174 H   0  0  0  0  0  0  0  0  0  0  0  0
   -6.9162   -2.1698    4.9517 H   0  0  0  0  0  0  0  0  0  0  0  0
   -8.3538   -1.0962    5.1124 H   0  0  0  0  0  0  0  0  0  0  0  0
   -6.3327   -0.0825    3.8768 H   0  0  0  0  0  0  0  0  0  0  0  0
   -7.9031   -0.0088    2.9943 H   0  0  0  0  0  0  0  0  0  0  0  0
   -7.6744    0.0871   -0.7505 H   0  0  0  0  0  0  0  0  0  0  0  0
   -9.5943    1.9347    2.8577 H   0  0  0  0  0  0  0  0  0  0  0  0
   -9.6203    3.6707    3.3416 H   0  0  0  0  0  0  0  0  0  0  0  0
   -8.0569    2.7982    3.2204 H   0  0  0  0  0  0  0  0  0  0  0  0
   -7.0727    4.4232    1.5343 H   0  0  0  0  0  0  0  0  0  0  0  0
   -8.5551    5.4320    1.6460 H   0  0  0  0  0  0  0  0  0  0  0  0
   -7.9926    4.8329    0.0399 H   0  0  0  0  0  0  0  0  0  0  0  0
  -10.3194    3.9451   -0.3108 H   0  0  0  0  0  0  0  0  0  0  0  0
  -10.8622    4.4096    1.3469 H   0  0  0  0  0  0  0  0  0  0  0  0
  -10.9994    2.6939    0.7892 H   0  0  0  0  0  0  0  0  0  0  0  0
   -3.1590   -2.1473   -2.7197 H   0  0  0  0  0  0  0  0  0  0  0  0
   -3.8149   -2.3625   -1.0674 H   0  0  0  0  0  0  0  0  0  0  0  0
   -4.9143   -1.9648   -2.4545 H   0  0  0  0  0  0  0  0  0  0  0  0
   -4.2896    2.1475   -2.8545 H   0  0  0  0  0  0  0  0  0  0  0  0
   -3.1072    1.9648   -4.1899 H   0  0  0  0  0  0  0  0  0  0  0  0
   -6.6277    0.8560   -3.1204 H   0  0  0  0  0  0  0  0  0  0  0  0
   -7.6143   -0.7358   -4.9158 H   0  0  0  0  0  0  0  0  0  0  0  0
   -5.7383   -1.3563   -6.5804 H   0  0  0  0  0  0  0  0  0  0  0  0
   -3.5533   -0.1721   -5.8664 H   0  0  0  0  0  0  0  0  0  0  0  0
   -0.2864    2.3684   -2.3769 H   0  0  0  0  0  0  0  0  0  0  0  0
   -1.8804   -1.7337    0.4098 H   0  0  0  0  0  0  0  0  0  0  0  0
   -0.4060   -1.1348    1.1820 H   0  0  0  0  0  0  0  0  0  0  0  0
    0.8811   -3.0015   -0.1204 H   0  0  0  0  0  0  0  0  0  0  0  0
    0.4572   -4.6586    1.5406 H   0  0  0  0  0  0  0  0  0  0  0  0
    0.3817   -3.0582    2.3151 H   0  0  0  0  0  0  0  0  0  0  0  0
   -1.4426   -4.8258    2.9274 H   0  0  0  0  0  0  0  0  0  0  0  0
   -1.9918   -3.1574    2.5951 H   0  0  0  0  0  0  0  0  0  0  0  0
   -3.2013   -3.7766    0.7344 H   0  0  0  0  0  0  0  0  0  0  0  0
   -3.1300   -5.4082    1.4620 H   0  0  0  0  0  0  0  0  0  0  0  0
   -1.1087   -5.9524    0.0999 H   0  0  0  0  0  0  0  0  0  0  0  0
   -2.4949   -5.4809   -0.9389 H   0  0  0  0  0  0  0  0  0  0  0  0
   -1.5533   -3.3936   -1.5070 H   0  0  0  0  0  0  0  0  0  0  0  0
   -0.1492   -4.4797   -1.4930 H   0  0  0  0  0  0  0  0  0  0  0  0
    1.1796   -1.5073   -2.8760 H   0  0  0  0  0  0  0  0  0  0  0  0
    6.2163    2.1187   -3.8137 H   0  0  0  0  0  0  0  0  0  0  0  0
    5.9648    3.1938   -5.2121 H   0  0  0  0  0  0  0  0  0  0  0  0
    4.6132    2.1524   -4.6272 H   0  0  0  0  0  0  0  0  0  0  0  0
  1  2  1  0
  2  3  1  0
  3  4  1  0
  4  5  1  0
  5  6  2  0
  5  7  1  0
  7  8  1  0
  8  9  1  0
  9 10  2  0
 10 11  1  0
 11 12  1  0
 12 13  1  0
 13 14  2  0
 13 15  1  0
 15 16  1  0
 16 17  1  0
 16 18  1  0
 16 19  1  0
  4 20  1  0
 20 21  1  0
 21 22  2  0
 21 23  1  0
 23 24  1  0
 24 25  1  0
 25 26  1  0
 26 27  1  0
 27 28  1  0
 28 29  1  0
 29 30  1  0
 30 31  2  0
 30 32  1  0
 32 33  1  0
 33 34  1  0
 34 35  2  0
 35 36  1  0
 36 37  2  0
 37 38  1  0
 38 39  1  0
 32 40  1  0
 40 41  1  0
 41 42  2  0
 41 43  1  0
 43 44  1  0
 44 45  1  0
 44 46  1  0
 44 47  1  0
 29 48  1  0
 28 49  1  0
 49 50  1  0
 50 51  2  0
 51 52  1  0
 52 53  1  0
 53 54  2  0
 27 55  1  0
 25 56  1  0
 56 57  1  0
 57 58  1  0
 58 59  1  0
 59 60  1  0
 60 61  1  0
 61 62  1  0
 24 63  1  0
  2 64  1  0
 14  9  1  0
 39 34  1  0
 54 50  1  0
 62 57  1  0
  1 65  1  0
  1 66  1  0
  1 67  1  0
  2 68  1  0
  3 69  1  0
  3 70  1  0
  4 71  1  0
  7 72  1  0
  8 73  1  0
  8 74  1  0
 10 75  1  0
 11 76  1  0
 11 77  1  0
 12 78  1  0
 12 79  1  0
 14 80  1  0
 15 81  1  0
 15 82  1  0
 17 83  1  0
 17 84  1  0
 17 85  1  0
 18 86  1  0
 18 87  1  0
 18 88  1  0
 19 89  1  0
 19 90  1  0
 19 91  1  0
 20 92  1  0
 23 93  1  0
 23 94  1  0
 24 95  1  0
 25 96  1  0
 26 97  1  0
 27 98  1  0
 28 99  1  0
 32100  1  0
 33101  1  0
 33102  1  0
 35103  1  0
 36104  1  0
 37105  1  0
 38106  1  0
 38107  1  0
 39108  1  0
 39109  1  0
 40110  1  0
 45111  1  0
 45112  1  0
 45113  1  0
 46114  1  0
 46115  1  0
 46116  1  0
 47117  1  0
 47118  1  0
 47119  1  0
 48120  1  0
 48121  1  0
 48122  1  0
 49123  1  0
 49124  1  0
 51125  1  0
 52126  1  0
 53127  1  0
 54128  1  0
 55129  1  0
 56130  1  0
 56131  1  0
 57132  1  0
 58133  1  0
 58134  1  0
 59135  1  0
 59136  1  0
 60137  1  0
 60138  1  0
 61139  1  0
 61140  1  0
 62141  1  0
 62142  1  0
 63143  1  0
 64144  1  0
 64145  1  0
 64146  1  0
M  CHG  2  16   1  54   1
M  END
$$$$
