
     RDKit          3D

 77 81  0  0  0  0  0  0  0  0999 V2000
   -6.7574    1.6972    3.7283 C   0  0  0  0  0  0  0  0  0  0  0  0
   -6.1203    2.0004    2.4920 O   0  0  0  0  0  0  0  0  0  0  0  0
   -5.3181    1.1014    1.7732 C   0  0  0  0  0  0  0  0  0  0  0  0
   -5.0601   -0.2042    2.2205 C   0  0  0  0  0  0  0  0  0  0  0  0
   -4.2587   -1.0636    1.4656 C   0  0  0  0  0  0  0  0  0  0  0  0
   -3.6918   -0.6506    0.2392 C   0  0  0  0  0  0  0  0  0  0  0  0
   -3.9571    0.6707   -0.1907 C   0  0  0  0  0  0  0  0  0  0  0  0
   -4.7598    1.5269    0.5671 C   0  0  0  0  0  0  0  0  0  0  0  0
   -2.7779   -1.6278   -0.5433 C   0  0  0  0  0  0  0  0  0  0  0  0
   -2.2587   -1.0821   -1.9156 C   0  0  0  0  0  0  0  0  0  0  0  0
   -3.2633   -1.1843   -3.0909 C   0  0  0  0  0  0  0  0  0  0  0  0
   -4.7009   -1.5068   -2.6672 C   0  0  0  0  0  0  0  0  0  0  0  0
   -4.7933   -2.7267   -1.7334 C   0  0  0  0  0  0  0  0  0  0  0  0
   -3.5441   -2.9435   -0.8564 C   0  0  0  0  0  0  0  0  0  0  0  0
   -1.5483   -1.9804    0.3486 C   0  0  0  0  0  0  0  0  0  0  0  0
   -0.8866   -0.7850    0.8787 N   0  0  0  0  0  0  0  0  0  0  0  0
    0.3200   -0.2477    0.3206 C   0  0  0  0  0  0  0  0  0  0  0  0
    0.6556   -0.5338   -0.8613 O   0  0  0  0  0  0  0  0  0  0  0  0
    1.1881    0.6677    1.1494 C   0  0  0  0  0  0  0  0  0  0  0  0
    0.6478    2.1140    1.1747 C   0  0  0  0  0  0  0  0  0  0  0  0
    0.5746    2.7607   -0.1825 C   0  0  0  0  0  0  0  0  0  0  0  0
   -0.4626    2.6319   -1.1003 C   0  0  0  0  0  0  0  0  0  0  0  0
   -0.2007    3.3466   -2.2177 N   0  0  0  0  0  0  0  0  0  0  0  0
    0.9899    3.9347   -2.0103 C   0  0  0  0  0  0  0  0  0  0  0  0
    1.4933    3.6069   -0.7767 C   0  0  0  0  0  0  0  0  0  0  0  0
    2.7082    4.1225   -0.3208 C   0  0  0  0  0  0  0  0  0  0  0  0
    3.4184    4.9848   -1.1756 C   0  0  0  0  0  0  0  0  0  0  0  0
    2.9033    5.3148   -2.4485 C   0  0  0  0  0  0  0  0  0  0  0  0
    1.6711    4.7883   -2.8770 C   0  0  0  0  0  0  0  0  0  0  0  0
    2.5814    0.6157    0.6893 N   0  0  0  0  0  0  0  0  0  0  0  0
    3.4177   -0.5276    0.9152 C   0  0  0  0  0  0  0  0  0  0  0  0
    2.9818   -1.5064    1.5813 O   0  0  0  0  0  0  0  0  0  0  0  0
    4.7321   -0.5682    0.3387 N   0  0  0  0  0  0  0  0  0  0  0  0
    5.7118   -1.5789    0.6321 C   0  0  0  0  0  0  0  0  0  0  0  0
    6.5998   -1.9874   -0.3725 C   0  0  0  0  0  0  0  0  0  0  0  0
    7.5757   -2.9529   -0.1087 C   0  0  0  0  0  0  0  0  0  0  0  0
    7.6918   -3.5183    1.1738 C   0  0  0  0  0  0  0  0  0  0  0  0
    6.8159   -3.0902    2.1861 C   0  0  0  0  0  0  0  0  0  0  0  0
    5.8395   -2.1253    1.9203 C   0  0  0  0  0  0  0  0  0  0  0  0
    8.6965   -4.5108    1.4515 N   0  0  0  0  0  0  0  0  0  0  0  0
    9.4896   -4.8806    0.5608 O   0  0  0  0  0  0  0  0  0  0  0  0
    8.7976   -5.0723    2.7043 O   0  0  0  0  0  0  0  0  0  0  0  0
   -7.3320    2.5836    4.0665 H   0  0  0  0  0  0  0  0  0  0  0  0
   -5.9969    1.4500    4.4991 H   0  0  0  0  0  0  0  0  0  0  0  0
   -7.4598    0.8470    3.5972 H   0  0  0  0  0  0  0  0  0  0  0  0
   -5.4722   -0.5662    3.1525 H   0  0  0  0  0  0  0  0  0  0  0  0
   -4.0760   -2.0554    1.8544 H   0  0  0  0  0  0  0  0  0  0  0  0
   -3.5812    1.0563   -1.1242 H   0  0  0  0  0  0  0  0  0  0  0  0
   -4.9544    2.5303    0.2095 H   0  0  0  0  0  0  0  0  0  0  0  0
   -1.8679   -0.0512   -1.8225 H   0  0  0  0  0  0  0  0  0  0  0  0
   -1.3697   -1.6753   -2.2262 H   0  0  0  0  0  0  0  0  0  0  0  0
   -2.9257   -1.9809   -3.7907 H   0  0  0  0  0  0  0  0  0  0  0  0
   -3.2600   -0.2300   -3.6607 H   0  0  0  0  0  0  0  0  0  0  0  0
   -5.1507   -0.6216   -2.1744 H   0  0  0  0  0  0  0  0  0  0  0  0
   -5.3118   -1.6978   -3.5760 H   0  0  0  0  0  0  0  0  0  0  0  0
   -5.6827   -2.6019   -1.0781 H   0  0  0  0  0  0  0  0  0  0  0  0
   -4.9629   -3.6417   -2.3417 H   0  0  0  0  0  0  0  0  0  0  0  0
   -2.8594   -3.6387   -1.3934 H   0  0  0  0  0  0  0  0  0  0  0  0
   -3.8444   -3.4744    0.0722 H   0  0  0  0  0  0  0  0  0  0  0  0
   -1.8721   -2.6020    1.2111 H   0  0  0  0  0  0  0  0  0  0  0  0
   -0.8172   -2.6116   -0.2036 H   0  0  0  0  0  0  0  0  0  0  0  0
   -1.2233   -0.4062    1.7929 H   0  0  0  0  0  0  0  0  0  0  0  0
    1.1598    0.3052    2.2010 H   0  0  0  0  0  0  0  0  0  0  0  0
   -0.3700    2.1137    1.6227 H   0  0  0  0  0  0  0  0  0  0  0  0
    1.2876    2.7286    1.8430 H   0  0  0  0  0  0  0  0  0  0  0  0
   -1.3659    2.0612   -0.9478 H   0  0  0  0  0  0  0  0  0  0  0  0
   -0.8092    3.4326   -3.0620 H   0  0  0  0  0  0  0  0  0  0  0  0
    3.0970    3.8714    0.6570 H   0  0  0  0  0  0  0  0  0  0  0  0
    4.3647    5.4000   -0.8543 H   0  0  0  0  0  0  0  0  0  0  0  0
    3.4578    5.9804   -3.0973 H   0  0  0  0  0  0  0  0  0  0  0  0
    1.2646    5.0409   -3.8476 H   0  0  0  0  0  0  0  0  0  0  0  0
    2.9768    1.4024    0.1300 H   0  0  0  0  0  0  0  0  0  0  0  0
    4.9508    0.1235   -0.4137 H   0  0  0  0  0  0  0  0  0  0  0  0
    6.5278   -1.5632   -1.3662 H   0  0  0  0  0  0  0  0  0  0  0  0
    8.2404   -3.2553   -0.9079 H   0  0  0  0  0  0  0  0  0  0  0  0
    6.8912   -3.4935    3.1875 H   0  0  0  0  0  0  0  0  0  0  0  0
    5.2048   -1.7897    2.7293 H   0  0  0  0  0  0  0  0  0  0  0  0
  1  2  1  0
  2  3  1  0
  3  4  2  0
  4  5  1  0
  5  6  2  0
  6  7  1  0
  7  8  2  0
  6  9  1  0
  9 10  1  0
 10 11  1  0
 11 12  1  0
 12 13  1  0
 13 14  1  0
  9 15  1  0
 15 16  1  0
 16 17  1  0
 17 18  2  0
 17 19  1  0
 19 20  1  0
 20 21  1  0
 21 22  2  0
 22 23  1  0
 23 24  1  0
 24 25  2  0
 25 26  1  0
 26 27  2  0
 27 28  1  0
 28 29  2  0
 19 30  1  0
 30 31  1  0
 31 32  2  0
 31 33  1  0
 33 34  1  0
 34 35  2  0
 35 36  1  0
 36 37  2  0
 37 38  1  0
 38 39  2  0
 37 40  1  0
 40 41  2  0
 40 42  1  0
  8  3  1  0
 14  9  1  0
 25 21  1  0
 39 34  1  0
 29 24  1  0
  1 43  1  0
  1 44  1  0
  1 45  1  0
  4 46  1  0
  5 47  1  0
  7 48  1  0
  8 49  1  0
 10 50  1  0
 10 51  1  0
 11 52  1  0
 11 53  1  0
 12 54  1  0
 12 55  1  0
 13 56  1  0
 13 57  1  0
 14 58  1  0
 14 59  1  0
 15 60  1  0
 15 61  1  0
 16 62  1  0
 19 63  1  0
 20 64  1  0
 20 65  1  0
 22 66  1  0
 23 67  1  0
 26 68  1  0
 27 69  1  0
 28 70  1  0
 29 71  1  0
 30 72  1  0
 33 73  1  0
 35 74  1  0
 36 75  1  0
 38 76  1  0
 39 77  1  0
M  CHG  2  40   1  42  -1
M  END
$$$$
